<?xml version="1.0" encoding="ISO-8859-1"?>
<febio_spec version="2.5">
	<Module type="solid"/>
	<Control>
		<time_steps>40</time_steps>
		<step_size>0.025</step_size>
		<max_refs>15</max_refs>
		<max_ups>10</max_ups>
		<dtol>0.001</dtol>
		<etol>0.01</etol>
		<rtol>0</rtol>
		<lstol>0.9</lstol>
		<time_stepper>
			<dtmin>0.01</dtmin>
			<dtmax>0.025</dtmax>
			<max_retries>5</max_retries>
			<opt_iter>10</opt_iter>
		</time_stepper>
		<analysis type="static"/>
	</Control>
	<Globals>
		<Constants>
			<T>0</T>
			<R>0</R>
			<Fc>0</Fc>
		</Constants>
	</Globals>
	<Material>
		<material id="1" name="Material1" type="neo-Hookean">
			<density>1</density>
			<E>1</E>
			<v>0.3</v>
		</material>
		<material id="2" name="Material2" type="rigid body">
			<density>1</density>
			<center_of_mass>0,0,0</center_of_mass>
		</material>
	</Material>
	<Geometry>
		<Nodes name="Object01">
			<node id="1">-2.0000000e+000,-5.0000000e-001, 0.0000000e+000</node>
			<node id="2">-2.0000000e+000,-5.0000000e-001, 1.0000000e-001</node>
			<node id="3">-2.0000000e+000,-5.0000000e-001, 2.0000000e-001</node>
			<node id="4">-2.0000000e+000,-5.0000000e-001, 3.0000000e-001</node>
			<node id="5">-2.0000000e+000,-5.0000000e-001, 4.0000000e-001</node>
			<node id="6">-2.0000000e+000,-5.0000000e-001, 5.0000000e-001</node>
			<node id="7">-2.0000000e+000,-5.0000000e-001, 6.0000000e-001</node>
			<node id="8">-2.0000000e+000,-5.0000000e-001, 7.0000000e-001</node>
			<node id="9">-2.0000000e+000,-5.0000000e-001, 8.0000000e-001</node>
			<node id="10">-2.0000000e+000,-5.0000000e-001, 9.0000000e-001</node>
			<node id="11">-2.0000000e+000,-5.0000000e-001, 1.0000000e+000</node>
			<node id="12">-2.0000000e+000,-4.0000000e-001, 0.0000000e+000</node>
			<node id="13">-2.0000000e+000,-4.0000000e-001, 1.0000000e-001</node>
			<node id="14">-2.0000000e+000,-4.0000000e-001, 2.0000000e-001</node>
			<node id="15">-2.0000000e+000,-4.0000000e-001, 3.0000000e-001</node>
			<node id="16">-2.0000000e+000,-4.0000000e-001, 4.0000000e-001</node>
			<node id="17">-2.0000000e+000,-4.0000000e-001, 5.0000000e-001</node>
			<node id="18">-2.0000000e+000,-4.0000000e-001, 6.0000000e-001</node>
			<node id="19">-2.0000000e+000,-4.0000000e-001, 7.0000000e-001</node>
			<node id="20">-2.0000000e+000,-4.0000000e-001, 8.0000000e-001</node>
<!-- ... 4941 like lines cut -->
		</Nodes>
		<Nodes name="Object02">
			<node id="4962">-1.0000000e-001,-5.5000000e-001, 2.0000000e+000</node>
			<node id="4963"> 2.2204460e-016,-5.5000000e-001, 2.0000000e+000</node>
			<node id="4964">-1.1729325e-001,-5.5000000e-001, 1.8244187e+000</node>
			<node id="4965">-1.9214719e-002,-5.4999999e-001, 1.8049097e+000</node>
			<node id="4966">-1.6850842e-001,-5.4999999e-001, 1.6555849e+000</node>
			<node id="4967">-7.6120465e-002,-5.4999999e-001, 1.6173166e+000</node>
			<node id="4968">-2.5167734e-001,-5.4999999e-001, 1.4999868e+000</node>
			<node id="4969">-1.6853038e-001,-5.4999999e-001, 1.4444298e+000</node>
			<node id="4970">-3.6360389e-001,-5.4999998e-001, 1.3636039e+000</node>
			<node id="4971">-2.9289321e-001,-5.4999998e-001, 1.2928932e+000</node>
			<node id="4972">-4.9998678e-001,-5.4999998e-001, 1.2516773e+000</node>
			<node id="4973">-4.4442975e-001,-5.4999998e-001, 1.1685304e+000</node>
			<node id="4974">-6.5558489e-001,-5.4999998e-001, 1.1685084e+000</node>
			<node id="4975">-6.1731655e-001,-5.4999998e-001, 1.0761205e+000</node>
			<node id="4976">-8.2441869e-001,-5.4999998e-001, 1.1172932e+000</node>
			<node id="4977">-8.0490965e-001,-5.4999997e-001, 1.0192147e+000</node>
			<node id="4978">-9.9999998e-001,-5.4999998e-001, 1.1000000e+000</node>
			<node id="4979">-9.9999997e-001,-5.4999997e-001, 9.9999999e-001</node>
			<node id="4980">-1.1755813e+000,-5.4999998e-001, 1.1172932e+000</node>
			<node id="4981">-1.1950903e+000,-5.4999997e-001, 1.0192147e+000</node>
<!-- ... 48 like lines cut -->
		</Nodes>
		<Elements type="hex8" mat="1" name="Part1">
			<elem id="1">     1,   122,   133,    12,     2,   123,   134,    13</elem>
			<elem id="2">     2,   123,   134,    13,     3,   124,   135,    14</elem>
			<elem id="3">     3,   124,   135,    14,     4,   125,   136,    15</elem>
			<elem id="4">     4,   125,   136,    15,     5,   126,   137,    16</elem>
			<elem id="5">     5,   126,   137,    16,     6,   127,   138,    17</elem>
			<elem id="6">     6,   127,   138,    17,     7,   128,   139,    18</elem>
			<elem id="7">     7,   128,   139,    18,     8,   129,   140,    19</elem>
			<elem id="8">     8,   129,   140,    19,     9,   130,   141,    20</elem>
			<elem id="9">     9,   130,   141,    20,    10,   131,   142,    21</elem>
			<elem id="10">    10,   131,   142,    21,    11,   132,   143,    22</elem>
			<elem id="11">    12,   133,   144,    23,    13,   134,   145,    24</elem>
			<elem id="12">    13,   134,   145,    24,    14,   135,   146,    25</elem>
			<elem id="13">    14,   135,   146,    25,    15,   136,   147,    26</elem>
			<elem id="14">    15,   136,   147,    26,    16,   137,   148,    27</elem>
			<elem id="15">    16,   137,   148,    27,    17,   138,   149,    28</elem>
			<elem id="16">    17,   138,   149,    28,    18,   139,   150,    29</elem>
			<elem id="17">    18,   139,   150,    29,    19,   140,   151,    30</elem>
			<elem id="18">    19,   140,   151,    30,    20,   141,   152,    31</elem>
			<elem id="19">    20,   141,   152,    31,    21,   142,   153,    32</elem>
			<elem id="20">    21,   142,   153,    32,    22,   143,   154,    33</elem>
<!-- ... 3980 like lines cut -->
		</Elements>
		<Elements type="hex8" mat="2" name="Part3">
			<elem id="4001">  4962,  4963,  4965,  4964,  4996,  4997,  4999,  4998</elem>
			<elem id="4002">  4964,  4965,  4967,  4966,  4998,  4999,  5001,  5000</elem>
			<elem id="4003">  4966,  4967,  4969,  4968,  5000,  5001,  5003,  5002</elem>
			<elem id="4004">  4968,  4969,  4971,  4970,  5002,  5003,  5005,  5004</elem>
			<elem id="4005">  4970,  4971,  4973,  4972,  5004,  5005,  5007,  5006</elem>
			<elem id="4006">  4972,  4973,  4975,  4974,  5006,  5007,  5009,  5008</elem>
			<elem id="4007">  4974,  4975,  4977,  4976,  5008,  5009,  5011,  5010</elem>
			<elem id="4008">  4976,  4977,  4979,  4978,  5010,  5011,  5013,  5012</elem>
			<elem id="4009">  4978,  4979,  4981,  4980,  5012,  5013,  5015,  5014</elem>
			<elem id="4010">  4980,  4981,  4983,  4982,  5014,  5015,  5017,  5016</elem>
			<elem id="4011">  4982,  4983,  4985,  4984,  5016,  5017,  5019,  5018</elem>
			<elem id="4012">  4984,  4985,  4987,  4986,  5018,  5019,  5021,  5020</elem>
			<elem id="4013">  4986,  4987,  4989,  4988,  5020,  5021,  5023,  5022</elem>
			<elem id="4014">  4988,  4989,  4991,  4990,  5022,  5023,  5025,  5024</elem>
			<elem id="4015">  4990,  4991,  4993,  4992,  5024,  5025,  5027,  5026</elem>
			<elem id="4016">  4992,  4993,  4995,  4994,  5026,  5027,  5029,  5028</elem>
		</Elements>
		<NodeSet name="FixedBC1">
			<node id="1"/>
			<node id="12"/>
			<node id="23"/>
			<node id="34"/>
			<node id="45"/>
			<node id="56"/>
			<node id="67"/>
			<node id="78"/>
			<node id="89"/>
			<node id="100"/>
			<node id="111"/>
			<node id="122"/>
			<node id="133"/>
			<node id="144"/>
			<node id="155"/>
			<node id="166"/>
			<node id="177"/>
			<node id="188"/>
			<node id="199"/>
			<node id="210"/>
<!-- ... 431 like lines cut -->
		</NodeSet>
		<NodeSet name="FixedBC2">
			<node id="11"/>
			<node id="22"/>
			<node id="33"/>
			<node id="44"/>
			<node id="55"/>
			<node id="66"/>
			<node id="77"/>
			<node id="88"/>
			<node id="99"/>
			<node id="110"/>
			<node id="121"/>
			<node id="132"/>
			<node id="143"/>
			<node id="154"/>
			<node id="165"/>
			<node id="176"/>
			<node id="187"/>
			<node id="198"/>
			<node id="209"/>
			<node id="220"/>
<!-- ... 431 like lines cut -->
		</NodeSet>
		<Surface name="ContactInterface1_master">
			<quad4 id="1">  4963,  4965,  4999,  4997</quad4>
			<quad4 id="2">  4965,  4967,  5001,  4999</quad4>
			<quad4 id="3">  4967,  4969,  5003,  5001</quad4>
			<quad4 id="4">  4969,  4971,  5005,  5003</quad4>
			<quad4 id="5">  4971,  4973,  5007,  5005</quad4>
			<quad4 id="6">  4973,  4975,  5009,  5007</quad4>
			<quad4 id="7">  4975,  4977,  5011,  5009</quad4>
			<quad4 id="8">  4977,  4979,  5013,  5011</quad4>
			<quad4 id="9">  4979,  4981,  5015,  5013</quad4>
			<quad4 id="10">  4981,  4983,  5017,  5015</quad4>
			<quad4 id="11">  4983,  4985,  5019,  5017</quad4>
			<quad4 id="12">  4985,  4987,  5021,  5019</quad4>
			<quad4 id="13">  4987,  4989,  5023,  5021</quad4>
			<quad4 id="14">  4989,  4991,  5025,  5023</quad4>
			<quad4 id="15">  4991,  4993,  5027,  5025</quad4>
			<quad4 id="16">  4993,  4995,  5029,  5027</quad4>
		</Surface>
		<Surface name="ContactInterface1_slave">
			<quad4 id="1">    11,   132,   143,    22</quad4>
			<quad4 id="2">    22,   143,   154,    33</quad4>
			<quad4 id="3">    33,   154,   165,    44</quad4>
			<quad4 id="4">    44,   165,   176,    55</quad4>
			<quad4 id="5">    55,   176,   187,    66</quad4>
			<quad4 id="6">    66,   187,   198,    77</quad4>
			<quad4 id="7">    77,   198,   209,    88</quad4>
			<quad4 id="8">    88,   209,   220,    99</quad4>
			<quad4 id="9">    99,   220,   231,   110</quad4>
			<quad4 id="10">   110,   231,   242,   121</quad4>
			<quad4 id="11">   132,   253,   264,   143</quad4>
			<quad4 id="12">   143,   264,   275,   154</quad4>
			<quad4 id="13">   154,   275,   286,   165</quad4>
			<quad4 id="14">   165,   286,   297,   176</quad4>
			<quad4 id="15">   176,   297,   308,   187</quad4>
			<quad4 id="16">   187,   308,   319,   198</quad4>
			<quad4 id="17">   198,   319,   330,   209</quad4>
			<quad4 id="18">   209,   330,   341,   220</quad4>
			<quad4 id="19">   220,   341,   352,   231</quad4>
			<quad4 id="20">   231,   352,   363,   242</quad4>
<!-- ... 380 like lines cut -->
		</Surface>
		<SurfacePair name="ContactInterface1">
			<master surface="ContactInterface1_master"/>
			<slave surface="ContactInterface1_slave"/>
		</SurfacePair>
	</Geometry>
	<Boundary>
		<fix bc="x,y,z" node_set="FixedBC1"/>
		<fix bc="x,y" node_set="FixedBC2"/>
		<rigid_body mat="2">
			<fixed bc="y"/>
			<fixed bc="Rx"/>
			<fixed bc="Ry"/>
			<fixed bc="Rz"/>
		</rigid_body>
		<rigid_body mat="2">
			<prescribed bc="x" lc="1">1</prescribed>
		</rigid_body>
		<rigid_body mat="2">
			<prescribed bc="z" lc="2">1</prescribed>
		</rigid_body>
	</Boundary>
	<Contact>
		<contact type="facet-to-facet sliding" name="ContactInterface1" surface_pair="ContactInterface1">
			<laugon>0</laugon>
			<tolerance>0.2</tolerance>
			<penalty>100</penalty>
			<two_pass>0</two_pass>
			<auto_penalty>0</auto_penalty>
			<fric_coeff>0</fric_coeff>
			<fric_penalty>0</fric_penalty>
			<search_tol>0.01</search_tol>
			<minaug>0</minaug>
			<maxaug>10</maxaug>
			<gaptol>0</gaptol>
			<seg_up>0</seg_up>
		</contact>
	</Contact>
	<Constraints>
	</Constraints>
	<LoadData>
		<loadcurve id="1" type="linear">
			<point>0.00,0.0</point>
			<point>0.25,0.0</point>
			<point>1.00,2.0</point>
		</loadcurve>
		<loadcurve id="2" type="linear">
			<point>0.00,0.00</point>
			<point>0.25,-0.4</point>
			<point>1.00,-0.4</point>
		</loadcurve>
	</LoadData>
	<Output>
		<plotfile type="febio"/>
	</Output>
</febio_spec>
